<?xml version="1.0" encoding="UTF-8"?>

<!-- generated on 2025-04-19 21:57:54 by Eclipse SUMO duarouter Version 1.22.0
<duarouterConfiguration xmlns:xsi="http://www.w3.org/2001/XMLSchema-instance" xsi:noNamespaceSchemaLocation="http://sumo.dlr.de/xsd/duarouterConfiguration.xsd">

    <input>
        <net-file value="osm.net.xml.gz"/>
        <route-files value="osm.passenger.trips.xml"/>
    </input>

    <output>
        <output-file value="osm.passenger.rou.xml"/>
    </output>

</duarouterConfiguration>
-->

<routes xmlns:xsi="http://www.w3.org/2001/XMLSchema-instance" xsi:noNamespaceSchemaLocation="http://sumo.dlr.de/xsd/routes_file.xsd">
    <vType id="veh_passenger" vClass="passenger"/>
    <vehicle id="veh0" type="veh_passenger" depart="0.00" departLane="best">
        <route edges="822920809 801414442 822920808#0 822920808#2 906806098#0 33679741#7 33679741#8 33679741#9 33679741#10 33679741#11 -33679832#5 -33679832#4 -33679832#3"/>
    </vehicle>
    <vehicle id="veh1" type="veh_passenger" depart="25.27" departLane="best">
        <route edges="1288670281#1 1288670281#2 264399255#0 264399255#1 668070789 288878938#0 288878938#1 906806098#0 906806095#2 906806095#3 199239736"/>
    </vehicle>
    <vehicle id="veh2" type="veh_passenger" depart="50.54" departLane="best">
        <route edges="462808827#0 462808827#1 1288670281#2 264399255#0 264399255#1 668070789 288878938#0 288878938#1 906806098#0 33679741#7 33679741#8 33679741#9 33679741#10 33679741#11 33679741#13 33679741#14"/>
    </vehicle>
    <vehicle id="veh3" type="veh_passenger" depart="75.80" departLane="best">
        <route edges="519643768 668070773 501772321 455330015#0 668070789 288878938#0 288878938#1 906806098#0 906806095#2 906806095#3 1012478862#1"/>
    </vehicle>
    <vehicle id="veh4" type="veh_passenger" depart="101.07" departLane="best">
        <route edges="519643766#0 244450535#0 244450535#1 264994983#1 462808827#0 462808827#1 -1288670281#1 462808824"/>
    </vehicle>
    <vehicle id="veh11" type="veh_passenger" depart="277.94" departLane="best">
        <route edges="-1012478862#2 -1012478862#1 904425963#1 904425963#2 904425963#4 904425963#5 244450453#1 244450453#2 244450453#3 244450453#5 244450453#6 244450453#7 244450453#8 668070773 501772321 244450450#0 244450450#1 244450450#2 338922085#0 338922085#1 338922085#3 244450426#1"/>
    </vehicle>
    <vehicle id="veh13" type="veh_passenger" depart="328.48" departLane="best">
        <route edges="288878925#0 288878925#1 288878925#2 4860359#0 4860359#1 455330015#0 668070789 288878938#0 288878938#1 906806098#0 904425963#4"/>
    </vehicle>
    <vehicle id="veh15" type="veh_passenger" depart="379.01" departLane="best">
        <route edges="244450458#2 264399255#0 264399255#1 668070789 288878938#0 288878938#1 906806098#0 904425963#4"/>
    </vehicle>
    <vehicle id="veh16" type="veh_passenger" depart="404.28" departLane="best">
        <route edges="822920808#0 822920808#2 244450453#1 244450453#2 244450453#3 244450453#5"/>
    </vehicle>
    <vehicle id="veh17" type="veh_passenger" depart="429.55" departLane="best">
        <route edges="4860359#0 4860359#1 455330015#0 244450535#0 244450535#1 264994983#1"/>
    </vehicle>
    <vehicle id="veh18" type="veh_passenger" depart="454.82" departLane="best">
        <route edges="904425963#2 904425963#4 904425963#5 244450453#1 244450453#2 244450453#3 244450453#5 244450453#6 244450453#7 244450453#8 668070773 501772321 455330015#0 244450535#0 244450535#1 298630661#0 298630661#1"/>
    </vehicle>
    <vehicle id="veh19" type="veh_passenger" depart="480.08" departLane="best">
        <route edges="288878925#0 288878925#1 288878925#2 4860359#0 4860359#1 244450450#0 244450450#1 244450450#2 338922085#0 338922085#1 338922085#3 244450426#1"/>
    </vehicle>
    <vehicle id="veh21" type="veh_passenger" depart="530.62" departLane="best" departSpeed="max">
        <route edges="455330016#0 1288670281#1 1288670281#2 264399255#0 264399255#1 668070789 288878938#0 288878938#1 244450462 822920809"/>
    </vehicle>
    <vehicle id="veh23" type="veh_passenger" depart="581.15" departLane="best">
        <route edges="-33679832#8 -33679832#7 -33679832#5 -33679832#4 -33679832#3 -33679832#2 -33679832#1 -33679832#0 244450453#6 244450453#7 244450453#8 668070773 501772321 244450450#0 244450450#1 244450450#2 -31051190"/>
    </vehicle>
    <vehicle id="veh25" type="veh_passenger" depart="631.69" departLane="best" departSpeed="max">
        <route edges="51911176 51911178 519643765 519643768 668070773 501772321 455330015#0 668070789 288878938#0"/>
    </vehicle>
    <vehicle id="veh27" type="veh_passenger" depart="682.22" departLane="best">
        <route edges="-1012478862#2 -1012478862#1 904425963#1 904425963#2 33679741#7 33679741#8 33679741#9 33679741#10 33679741#11 33679741#13 33679741#14 33679741#15 33679741#16 33679741#17 33679741#18 4860359#0"/>
    </vehicle>
    <vehicle id="veh30" type="veh_passenger" depart="758.03" departLane="best">
        <route edges="822920808#0 822920808#2 244450453#1 244450453#2 244450453#3 244450453#5 244450453#6 244450453#7 244450453#8 668070773 501772321 244450450#0 244450450#1 244450450#2 338922085#0 338922085#1 338922085#3 244450426#1"/>
    </vehicle>
    <vehicle id="veh31" type="veh_passenger" depart="783.30" departLane="best" departSpeed="max">
        <route edges="367214998#0 367214998#1 367214998#2 906806098#0 906806095#2 906806095#3 199239736"/>
    </vehicle>
    <vehicle id="veh32" type="veh_passenger" depart="808.56" departLane="best">
        <route edges="904425963#2 904425963#4 904425963#5 244450453#1 244450453#2 244450453#3 244450453#5 244450453#6 244450453#7 244450453#8 668070773"/>
    </vehicle>
    <vehicle id="veh34" type="veh_passenger" depart="859.10" departLane="best" departSpeed="max">
        <route edges="455330016#0 1288670281#1 1288670281#2 264399255#0 264399255#1 668070789 288878938#0 288878938#1 906806098#0 906806095#2 906806095#3 199239736"/>
    </vehicle>
    <vehicle id="veh36" type="veh_passenger" depart="909.63" departLane="best">
        <route edges="-1012478862#1 904425963#1 904425963#2 904425963#4 904425963#5 244450453#1 244450453#2 244450453#3 244450453#5 244450453#6 244450453#7 244450453#8"/>
    </vehicle>
    <vehicle id="veh38" type="veh_passenger" depart="960.17" departLane="best">
        <route edges="-33679832#7 33679741#13 33679741#14 33679741#15 33679741#16 33679741#17 33679741#18 4860359#0 4860359#1 455330015#0 244450535#0 244450535#1 298630661#0 298630661#1"/>
    </vehicle>
    <vehicle id="veh40" type="veh_passenger" depart="1010.70" departLane="best" departSpeed="max">
        <route edges="367214998#0 367214998#1 367214998#2 906806098#0 33679741#7 33679741#8 33679741#9 33679741#10 33679741#11 33679741#13 33679741#14 33679741#15 33679741#16"/>
    </vehicle>
    <vehicle id="veh41" type="veh_passenger" depart="1035.97" departLane="best">
        <route edges="367214998#2 244450453#1 244450453#2 244450453#3 244450453#5 244450453#6 244450453#7 244450453#8 668070773 288878925#0 288878925#1 288878925#2 4860359#0 4860359#1"/>
    </vehicle>
    <vehicle id="veh42" type="veh_passenger" depart="1061.24" departLane="best">
        <route edges="263225305#3 668070789 288878938#0 288878938#1 906806098#0 906806095#2 906806095#3 904425963#1"/>
    </vehicle>
    <vehicle id="veh44" type="veh_passenger" depart="1111.77" departLane="best">
        <route edges="244450458#2 264399255#0 264399255#1 668070789 288878938#0 288878938#1 906806098#0 906806095#2 906806095#3 199239736"/>
    </vehicle>
    <vehicle id="veh46" type="veh_passenger" depart="1162.31" departLane="best">
        <route edges="519643766#0 668070789 288878938#0 288878938#1 906806098#0 906806095#2 906806095#3 199239736"/>
    </vehicle>
    <vehicle id="veh47" type="veh_passenger" depart="1187.58" departLane="best">
        <route edges="-1012478862#1 904425963#1 904425963#2 904425963#4 904425963#5 244450453#1 244450453#2 244450453#3 244450453#5 244450453#6 244450453#7 244450453#8 668070773 501772321 455330015#0 244450535#0 244450535#1 298630661#0"/>
    </vehicle>
    <vehicle id="veh49" type="veh_passenger" depart="1238.11" departLane="best">
        <route edges="33679832#5 33679741#13 33679741#14 33679741#15 33679741#16 33679741#17 33679741#18 4860359#0 4860359#1 455330015#0 668070789 288878938#0 288878938#1 244450462"/>
    </vehicle>
    <vehicle id="veh51" type="veh_passenger" depart="1288.65" departLane="best">
        <route edges="263225305#3 668070789 288878938#0 288878938#1 906806098#0 906806095#2"/>
    </vehicle>
    <vehicle id="veh55" type="veh_passenger" depart="1389.72" departLane="best">
        <route edges="33679832#4 33679832#5 33679741#13 33679741#14 33679741#15 33679741#16 33679741#17 33679741#18 4860359#0 4860359#1 244450450#0 244450450#1 244450450#2 -31051190"/>
    </vehicle>
    <vehicle id="veh56" type="veh_passenger" depart="1414.98" departLane="best" departSpeed="max">
        <route edges="361939117#0 361939117#1 -1012478862#1 904425963#1 904425963#2 904425963#4 904425963#5 244450453#1 244450453#2 244450453#3 244450453#5 244450453#6 244450453#7 244450453#8 668070773 501772321 455330015#0 668070789 288878938#0"/>
    </vehicle>
    <vehicle id="veh57" type="veh_passenger" depart="1440.25" departLane="best" departSpeed="max">
        <route edges="-329022967 -1012478862#3 -1012478862#2 -1012478862#1 904425963#1 904425963#2 904425963#4 904425963#5 244450453#1 244450453#2 244450453#3 244450453#5 33679832#0 33679832#1 33679832#2"/>
    </vehicle>
    <vehicle id="veh58" type="veh_passenger" depart="1465.52" departLane="best">
        <route edges="244450450#0 244450450#1 244450450#2 264399255#0 264399255#1 668070789 288878938#0 288878938#1 906806098#0 906806095#2"/>
    </vehicle>
    <vehicle id="veh59" type="veh_passenger" depart="1490.79" departLane="best">
        <route edges="822920809 801414442 822920808#0 822920808#2 244450453#1 244450453#2 244450453#3 244450453#5 244450453#6 244450453#7 244450453#8 668070773 501772321 244450450#0 244450450#1 244450450#2 338922085#0 338922085#1 338922085#3 244450426#1"/>
    </vehicle>
    <vehicle id="veh60" type="veh_passenger" depart="1516.06" departLane="best" departSpeed="max">
        <route edges="455330016#0 1288670281#1 1288670281#2 338922085#0 338922085#1 338922085#3"/>
    </vehicle>
    <vehicle id="veh63" type="veh_passenger" depart="1591.86" departLane="best">
        <route edges="-33679832#2 -33679832#1 -33679832#0 244450453#6 244450453#7 244450453#8 668070773 501772321 455330015#0 244450535#0 244450535#1 298630661#0 298630661#1"/>
    </vehicle>
    <vehicle id="veh65" type="veh_passenger" depart="1642.39" departLane="best">
        <route edges="288878925#0 288878925#1 288878925#2 4860359#0 4860359#1 455330015#0 668070789 288878938#0 288878938#1 906806098#0 904425963#4"/>
    </vehicle>
    <vehicle id="veh66" type="veh_passenger" depart="1667.66" departLane="best">
        <route edges="822920808#2 244450453#1 244450453#2 244450453#3 244450453#5 244450453#6 244450453#7 244450453#8 668070773 501772321 455330015#0 668070789"/>
    </vehicle>
    <vehicle id="veh68" type="veh_passenger" depart="1718.20" departLane="best" departSpeed="max">
        <route edges="455330016#0 1288670281#1 1288670281#2 264399255#0 264399255#1 668070789 288878938#0 288878938#1 906806098#0"/>
    </vehicle>
    <vehicle id="veh69" type="veh_passenger" depart="1743.46" departLane="best">
        <route edges="462808827#1 1288670281#2 264399255#0 264399255#1 668070789 288878938#0 288878938#1 906806098#0 906806095#2 906806095#3 1012478862#1 1012478862#2"/>
    </vehicle>
    <vehicle id="veh70" type="veh_passenger" depart="1768.73" departLane="best">
        <route edges="4860359#1 455330015#0 668070789 288878938#0 288878938#1 906806098#0 904425963#4"/>
    </vehicle>
    <vehicle id="veh71" type="veh_passenger" depart="1794.00" departLane="best">
        <route edges="-1012478862#3 -1012478862#2 -1012478862#1 904425963#1 904425963#2 33679741#7 33679741#8 33679741#9 33679741#10 33679741#11 33679741#13 33679741#14 33679741#15 33679741#16 33679741#17"/>
    </vehicle>
    <vehicle id="veh72" type="veh_passenger" depart="1819.27" departLane="best" departSpeed="max">
        <route edges="455330016#0 1288670281#1 1288670281#2 338922085#0 338922085#1 338922085#3 244450426#1"/>
    </vehicle>
    <vehicle id="veh73" type="veh_passenger" depart="1844.53" departLane="best" departSpeed="max">
        <route edges="367214998#0 367214998#1 367214998#2 906806098#0 906806095#2 906806095#3 904425963#1"/>
    </vehicle>
    <vehicle id="veh76" type="veh_passenger" depart="1920.34" departLane="best" departSpeed="max">
        <route edges="455330016#0 1288670281#1 1288670281#2 338922085#0 338922085#1 338922085#3 244450426#1"/>
    </vehicle>
    <vehicle id="veh79" type="veh_passenger" depart="1996.14" departLane="best">
        <route edges="-33679832#3 -33679832#2 -33679832#1 -33679832#0 244450453#6 244450453#7 244450453#8 668070773 501772321 455330015#0 668070789 288878938#0 288878938#1 244450462 822920809 801414442 822920808#0"/>
    </vehicle>
    <vehicle id="veh82" type="veh_passenger" depart="2071.94" departLane="best" departSpeed="max">
        <route edges="31051190 264399255#0 264399255#1 668070789 288878938#0 288878938#1 244450462 822920809"/>
    </vehicle>
    <vehicle id="veh83" type="veh_passenger" depart="2097.21" departLane="best" departSpeed="max">
        <route edges="51911176 51911178 519643765 519643768"/>
    </vehicle>
    <vehicle id="veh85" type="veh_passenger" depart="2147.74" departLane="best">
        <route edges="-33679832#7 -33679832#5 -33679832#4 -33679832#3 -33679832#2 -33679832#1 -33679832#0 244450453#6 244450453#7 244450453#8 668070773 501772321 244450450#0 244450450#1 244450450#2 338922085#0 338922085#1 338922085#3"/>
    </vehicle>
    <vehicle id="veh86" type="veh_passenger" depart="2173.01" departLane="best">
        <route edges="244450450#0 244450450#1 244450450#2 264399255#0 264399255#1 668070789 288878938#0 288878938#1 906806098#0 906806095#2"/>
    </vehicle>
    <vehicle id="veh87" type="veh_passenger" depart="2198.28" departLane="best">
        <route edges="668070789 288878938#0 288878938#1 906806098#0 906806095#2 906806095#3"/>
    </vehicle>
    <vehicle id="veh88" type="veh_passenger" depart="2223.55" departLane="best">
        <route edges="519643768 668070773 501772321 455330015#0 668070789 288878938#0 288878938#1 244450462 822920809 801414442 822920808#0"/>
    </vehicle>
    <vehicle id="veh89" type="veh_passenger" depart="2248.81" departLane="best">
        <route edges="519643768 668070773 501772321 244450450#0 244450450#1 244450450#2 338922085#0 338922085#1 338922085#3 244450426#1"/>
    </vehicle>
    <vehicle id="veh93" type="veh_passenger" depart="2349.89" departLane="best">
        <route edges="1288670281#1 1288670281#2 264399255#0 264399255#1 668070789 288878938#0 288878938#1 906806098#0 906806095#2 906806095#3 199239736"/>
    </vehicle>
    <vehicle id="veh94" type="veh_passenger" depart="2375.15" departLane="best">
        <route edges="33679741#0 33679741#1 33679741#2 33679741#3 904425963#4 904425963#5 244450453#1 244450453#2 244450453#3 244450453#5 244450453#6 244450453#7 244450453#8 668070773 501772321 455330015#0 668070789 519643770"/>
    </vehicle>
    <vehicle id="veh95" type="veh_passenger" depart="2400.42" departLane="best">
        <route edges="904425963#2 904425963#4 904425963#5 244450453#1 244450453#2 244450453#3 244450453#5 244450453#6 244450453#7 244450453#8 668070773 501772321 244450450#0 244450450#1 244450450#2 338922085#0 338922085#1 338922085#3 244450426#1"/>
    </vehicle>
    <vehicle id="veh96" type="veh_passenger" depart="2425.69" departLane="best" departSpeed="max">
        <route edges="455330016#0 1288670281#1 1288670281#2 264399255#0 264399255#1 501772320#1 288878925#0"/>
    </vehicle>
    <vehicle id="veh97" type="veh_passenger" depart="2450.96" departLane="best">
        <route edges="904425963#2 904425963#4 904425963#5 244450453#1 244450453#2 244450453#3 244450453#5 244450453#6 244450453#7 244450453#8 668070773 501772321 244450450#0 244450450#1 244450450#2 338922085#0 338922085#1 338922085#3 244450426#1"/>
    </vehicle>
    <vehicle id="veh99" type="veh_passenger" depart="2501.49" departLane="best" departSpeed="max">
        <route edges="455330016#0 1288670281#1 1288670281#2 264399255#0 264399255#1 668070789 288878938#0 288878938#1 906806098#0 906806095#2 906806095#3 1012478862#1 1012478862#2 1012478862#3 329022967"/>
    </vehicle>
    <vehicle id="veh100" type="veh_passenger" depart="2526.76" departLane="best">
        <route edges="367214998#2 244450453#1 244450453#2 244450453#3 244450453#5 244450453#6 244450453#7 244450453#8 668070773 501772321 455330015#0 244450535#0 244450535#1 264994983#1 462808827#0 462808827#1"/>
    </vehicle>
    <vehicle id="veh101" type="veh_passenger" depart="2552.03" departLane="best">
        <route edges="33679741#2 33679741#3 904425963#4 904425963#5 244450453#1 244450453#2 244450453#3 244450453#5 244450453#6 244450453#7 244450453#8 668070773 501772321 244450450#0 244450450#1 244450450#2 -31051190"/>
    </vehicle>
    <vehicle id="veh102" type="veh_passenger" depart="2577.29" departLane="best" departSpeed="max">
        <route edges="31051190 264399255#0 264399255#1 668070789 519643770 -519643765 -51911178 51911177"/>
    </vehicle>
    <vehicle id="veh103" type="veh_passenger" depart="2602.56" departLane="best">
        <route edges="33679832#5 33679741#13 33679741#14 33679741#15 33679741#16 33679741#17 33679741#18 4860359#0 4860359#1 244450450#0 244450450#1 244450450#2"/>
    </vehicle>
    <vehicle id="veh104" type="veh_passenger" depart="2627.83" departLane="best" departSpeed="max">
        <route edges="1321444212 244450458#1 244450458#2 264399255#0 264399255#1 668070789 288878938#0"/>
    </vehicle>
    <vehicle id="veh105" type="veh_passenger" depart="2653.10" departLane="best">
        <route edges="904425963#5 244450453#1 244450453#2 244450453#3 244450453#5 244450453#6 244450453#7 244450453#8 668070773 501772321 244450450#0 244450450#1 244450450#2 -1288670281#2 -1288670281#1 462808824"/>
    </vehicle>
    <vehicle id="veh106" type="veh_passenger" depart="2678.36" departLane="best">
        <route edges="904425963#1 904425963#2 904425963#4 904425963#5 244450453#1 244450453#2 244450453#3 244450453#5 244450453#6 244450453#7 244450453#8 668070773 501772321 244450450#0 244450450#1 244450450#2 338922085#0 338922085#1"/>
    </vehicle>
    <vehicle id="veh107" type="veh_passenger" depart="2703.63" departLane="best">
        <route edges="-1012478862#1 904425963#1 904425963#2 904425963#4 904425963#5 244450453#1 244450453#2 244450453#3 244450453#5 244450453#6 244450453#7 244450453#8 668070773 501772321 244450450#0 244450450#1"/>
    </vehicle>
    <vehicle id="veh110" type="veh_passenger" depart="2779.43" departLane="best">
        <route edges="-33679832#7 33679741#13 33679741#14 33679741#15 33679741#16 33679741#17 33679741#18 4860359#0 4860359#1 455330015#0 668070789 288878938#0 288878938#1 906806098#0 906806095#2 906806095#3 1012478862#1 1012478862#2 1012478862#3 329022967"/>
    </vehicle>
    <vehicle id="veh111" type="veh_passenger" depart="2804.70" departLane="best">
        <route edges="244450453#7 244450453#8 668070773 501772321 244450450#0 244450450#1 244450450#2 -1288670281#2 -1288670281#1"/>
    </vehicle>
    <vehicle id="veh114" type="veh_passenger" depart="2880.50" departLane="best">
        <route edges="244450453#6 244450453#7 244450453#8 668070773 501772321 244450450#0 244450450#1 244450450#2 -1288670281#2 -1288670281#1 462808824"/>
    </vehicle>
    <vehicle id="veh115" type="veh_passenger" depart="2905.77" departLane="best">
        <route edges="4860359#0 4860359#1 455330015#0 668070789 288878938#0 288878938#1 906806098#0 906806095#2 906806095#3 1012478862#1"/>
    </vehicle>
    <vehicle id="veh116" type="veh_passenger" depart="2931.04" departLane="best">
        <route edges="244450450#2 264399255#0 264399255#1 668070789 288878938#0 288878938#1 906806098#0"/>
    </vehicle>
    <vehicle id="veh117" type="veh_passenger" depart="2956.31" departLane="best">
        <route edges="367214998#1 367214998#2 244450453#1 244450453#2 244450453#3 244450453#5 244450453#6 244450453#7 244450453#8 668070773 501772321 244450450#0 244450450#1 244450450#2 -31051190"/>
    </vehicle>
    <vehicle id="veh118" type="veh_passenger" depart="2981.57" departLane="best">
        <route edges="263225305#3 668070789 519643770 -519643765 -51911178 51911177"/>
    </vehicle>
    <vehicle id="veh120" type="veh_passenger" depart="3032.11" departLane="best">
        <route edges="4860359#1 455330015#0 668070789 288878938#0 288878938#1 906806098#0"/>
    </vehicle>
    <vehicle id="veh121" type="veh_passenger" depart="3057.38" departLane="best" departSpeed="max">
        <route edges="455330016#0 1288670281#1 1288670281#2 264399255#0 264399255#1 668070789 288878938#0 288878938#1 906806098#0"/>
    </vehicle>
    <vehicle id="veh122" type="veh_passenger" depart="3082.65" departLane="best">
        <route edges="822920809 801414442 822920808#0 822920808#2 244450453#1 244450453#2 244450453#3 244450453#5 244450453#6 244450453#7 244450453#8 668070773 501772321 244450450#0 244450450#1 244450450#2 338922085#0 338922085#1"/>
    </vehicle>
    <vehicle id="veh126" type="veh_passenger" depart="3183.72" departLane="best" departSpeed="max">
        <route edges="367214998#0 367214998#1 367214998#2 244450453#1 244450453#2 244450453#3 244450453#5 244450453#6 244450453#7 244450453#8 668070773 501772321 244450450#0 244450450#1 244450450#2 338922085#0 338922085#1 338922085#3 244450426#1"/>
    </vehicle>
    <vehicle id="veh129" type="veh_passenger" depart="3259.52" departLane="best" departSpeed="max">
        <route edges="455330016#0 1288670281#1 1288670281#2 338922085#0 338922085#1 338922085#3 244450426#1"/>
    </vehicle>
    <vehicle id="veh136" type="veh_passenger" depart="3436.39" departLane="best">
        <route edges="33679741#10 33679741#11 -33679832#5 -33679832#4 -33679832#3 -33679832#2 -33679832#1 -33679832#0 244450453#6 244450453#7 244450453#8 668070773 501772321 244450450#0 244450450#1 244450450#2 -1288670281#2 -1288670281#1 462808824"/>
    </vehicle>
    <vehicle id="veh137" type="veh_passenger" depart="3461.66" departLane="best" departSpeed="max">
        <route edges="367214998#0 367214998#1 367214998#2 244450453#1 244450453#2 244450453#3 244450453#5 244450453#6 244450453#7 244450453#8 668070773 501772321 455330015#0 244450535#0 244450535#1 264994983#1 462808827#0 462808827#1 1288670281#2"/>
    </vehicle>
    <vehicle id="veh139" type="veh_passenger" depart="3512.19" departLane="best" departSpeed="max">
        <route edges="1321444212 244450458#1 244450458#2 264399255#0 264399255#1 244450535#0 244450535#1 298630661#0 298630661#1"/>
    </vehicle>
    <vehicle id="veh140" type="veh_passenger" depart="3537.46" departLane="best" departSpeed="max">
        <route edges="-329022967 -1012478862#3 -1012478862#2 -1012478862#1 904425963#1 904425963#2 904425963#4 904425963#5 244450453#1 244450453#2 244450453#3 244450453#5 244450453#6 244450453#7 244450453#8 668070773 501772321 455330015#0 244450535#0 244450535#1 263225305#2"/>
    </vehicle>
</routes>
